
---------- Begin Simulation Statistics ----------
simSeconds                                   0.018146                       # Number of seconds simulated (Second)
simTicks                                  18146203250                       # Number of ticks simulated (Tick)
finalTick                                 18146203250                       # Number of ticks from beginning of simulation (restored from checkpoints and never reset) (Tick)
simFreq                                  1000000000000                       # The number of ticks per simulated second ((Tick/Second))
hostSeconds                                    116.90                       # Real time elapsed on the host (Second)
hostTickRate                                155230392                       # The number of ticks simulated per host second (ticks/s) ((Tick/Second))
hostMemory                                     707260                       # Number of bytes of host memory used (Byte)
simInsts                                     44331489                       # Number of instructions simulated (Count)
simOps                                       44331512                       # Number of ops (including micro ops) simulated (Count)
hostInstRate                                   379229                       # Simulator instruction rate (inst/s) ((Count/Second))
hostOpRate                                     379230                       # Simulator op (including micro ops) rate (op/s) ((Count/Second))
system.clk_domain.clock                          1000                       # Clock period in ticks (Tick)
system.cpu0.numCycles                        72584813                       # Number of cpu cycles simulated (Cycle)
system.cpu0.numWorkItemsStarted                     0                       # Number of work items this cpu started (Count)
system.cpu0.numWorkItemsCompleted                   0                       # Number of work items this cpu completed (Count)
system.cpu0.numInsts                         44331489                       # Number of instructions committed (Count)
system.cpu0.numOps                           44331512                       # Number of ops (including micro ops) committed (Count)
system.cpu0.numDiscardedOps                    287028                       # Number of ops (including micro ops) which were discarded before commit (Count)
system.cpu0.numFetchSuspends                        0                       # Number of times Execute suspended instruction fetching (Count)
system.cpu0.cpi                              1.637320                       # CPI: cycles per instruction ((Cycle/Count))
system.cpu0.ipc                              0.610754                       # IPC: instructions per cycle ((Count/Cycle))
system.cpu0.committedInstType_0::No_OpClass        65874      0.15%      0.15% # Class of committed instruction (Count)
system.cpu0.committedInstType_0::IntAlu      21874756     49.34%     49.49% # Class of committed instruction (Count)
system.cpu0.committedInstType_0::IntMult       131926      0.30%     49.79% # Class of committed instruction (Count)
system.cpu0.committedInstType_0::IntDiv          4247      0.01%     49.80% # Class of committed instruction (Count)
system.cpu0.committedInstType_0::FloatAdd      4007469      9.04%     58.84% # Class of committed instruction (Count)
system.cpu0.committedInstType_0::FloatCmp       183887      0.41%     59.25% # Class of committed instruction (Count)
system.cpu0.committedInstType_0::FloatCvt       849432      1.92%     61.17% # Class of committed instruction (Count)
system.cpu0.committedInstType_0::FloatMult      3453945      7.79%     68.96% # Class of committed instruction (Count)
system.cpu0.committedInstType_0::FloatMultAcc      1066472      2.41%     71.37% # Class of committed instruction (Count)
system.cpu0.committedInstType_0::FloatDiv        65794      0.15%     71.52% # Class of committed instruction (Count)
system.cpu0.committedInstType_0::FloatMisc       384093      0.87%     72.38% # Class of committed instruction (Count)
system.cpu0.committedInstType_0::FloatSqrt            0      0.00%     72.38% # Class of committed instruction (Count)
system.cpu0.committedInstType_0::SimdAdd            0      0.00%     72.38% # Class of committed instruction (Count)
system.cpu0.committedInstType_0::SimdAddAcc            0      0.00%     72.38% # Class of committed instruction (Count)
system.cpu0.committedInstType_0::SimdAlu            0      0.00%     72.38% # Class of committed instruction (Count)
system.cpu0.committedInstType_0::SimdCmp            0      0.00%     72.38% # Class of committed instruction (Count)
system.cpu0.committedInstType_0::SimdCvt            0      0.00%     72.38% # Class of committed instruction (Count)
system.cpu0.committedInstType_0::SimdMisc            0      0.00%     72.38% # Class of committed instruction (Count)
system.cpu0.committedInstType_0::SimdMult            0      0.00%     72.38% # Class of committed instruction (Count)
system.cpu0.committedInstType_0::SimdMultAcc            0      0.00%     72.38% # Class of committed instruction (Count)
system.cpu0.committedInstType_0::SimdShift            0      0.00%     72.38% # Class of committed instruction (Count)
system.cpu0.committedInstType_0::SimdShiftAcc            0      0.00%     72.38% # Class of committed instruction (Count)
system.cpu0.committedInstType_0::SimdDiv            0      0.00%     72.38% # Class of committed instruction (Count)
system.cpu0.committedInstType_0::SimdSqrt            0      0.00%     72.38% # Class of committed instruction (Count)
system.cpu0.committedInstType_0::SimdFloatAdd            0      0.00%     72.38% # Class of committed instruction (Count)
system.cpu0.committedInstType_0::SimdFloatAlu            0      0.00%     72.38% # Class of committed instruction (Count)
system.cpu0.committedInstType_0::SimdFloatCmp            0      0.00%     72.38% # Class of committed instruction (Count)
system.cpu0.committedInstType_0::SimdFloatCvt            0      0.00%     72.38% # Class of committed instruction (Count)
system.cpu0.committedInstType_0::SimdFloatDiv            0      0.00%     72.38% # Class of committed instruction (Count)
system.cpu0.committedInstType_0::SimdFloatMisc            0      0.00%     72.38% # Class of committed instruction (Count)
system.cpu0.committedInstType_0::SimdFloatMult            0      0.00%     72.38% # Class of committed instruction (Count)
system.cpu0.committedInstType_0::SimdFloatMultAcc            0      0.00%     72.38% # Class of committed instruction (Count)
system.cpu0.committedInstType_0::SimdFloatSqrt            0      0.00%     72.38% # Class of committed instruction (Count)
system.cpu0.committedInstType_0::SimdReduceAdd            0      0.00%     72.38% # Class of committed instruction (Count)
system.cpu0.committedInstType_0::SimdReduceAlu            0      0.00%     72.38% # Class of committed instruction (Count)
system.cpu0.committedInstType_0::SimdReduceCmp            0      0.00%     72.38% # Class of committed instruction (Count)
system.cpu0.committedInstType_0::SimdFloatReduceAdd            0      0.00%     72.38% # Class of committed instruction (Count)
system.cpu0.committedInstType_0::SimdFloatReduceCmp            0      0.00%     72.38% # Class of committed instruction (Count)
system.cpu0.committedInstType_0::SimdAes            0      0.00%     72.38% # Class of committed instruction (Count)
system.cpu0.committedInstType_0::SimdAesMix            0      0.00%     72.38% # Class of committed instruction (Count)
system.cpu0.committedInstType_0::SimdSha1Hash            0      0.00%     72.38% # Class of committed instruction (Count)
system.cpu0.committedInstType_0::SimdSha1Hash2            0      0.00%     72.38% # Class of committed instruction (Count)
system.cpu0.committedInstType_0::SimdSha256Hash            0      0.00%     72.38% # Class of committed instruction (Count)
system.cpu0.committedInstType_0::SimdSha256Hash2            0      0.00%     72.38% # Class of committed instruction (Count)
system.cpu0.committedInstType_0::SimdShaSigma2            0      0.00%     72.38% # Class of committed instruction (Count)
system.cpu0.committedInstType_0::SimdShaSigma3            0      0.00%     72.38% # Class of committed instruction (Count)
system.cpu0.committedInstType_0::SimdPredAlu            0      0.00%     72.38% # Class of committed instruction (Count)
system.cpu0.committedInstType_0::MemRead      2215170      5.00%     77.38% # Class of committed instruction (Count)
system.cpu0.committedInstType_0::MemWrite      1265331      2.85%     80.23% # Class of committed instruction (Count)
system.cpu0.committedInstType_0::FloatMemRead      5369815     12.11%     92.35% # Class of committed instruction (Count)
system.cpu0.committedInstType_0::FloatMemWrite      3393301      7.65%    100.00% # Class of committed instruction (Count)
system.cpu0.committedInstType_0::IprAccess            0      0.00%    100.00% # Class of committed instruction (Count)
system.cpu0.committedInstType_0::InstPrefetch            0      0.00%    100.00% # Class of committed instruction (Count)
system.cpu0.committedInstType_0::total       44331512                       # Class of committed instruction (Count)
system.cpu0.branchPred.lookups                4808677                       # Number of BP lookups (Count)
system.cpu0.branchPred.condPredicted          3656844                       # Number of conditional branches predicted (Count)
system.cpu0.branchPred.condIncorrect            35756                       # Number of conditional branches incorrect (Count)
system.cpu0.branchPred.BTBLookups             3009180                       # Number of BTB lookups (Count)
system.cpu0.branchPred.BTBHits                3006975                       # Number of BTB hits (Count)
system.cpu0.branchPred.BTBHitRatio           0.999267                       # BTB Hit Ratio (Ratio)
system.cpu0.branchPred.RASUsed                 465855                       # Number of times the RAS was used to get a target. (Count)
system.cpu0.branchPred.RASIncorrect                10                       # Number of incorrect RAS predictions. (Count)
system.cpu0.branchPred.indirectLookups           4520                       # Number of indirect predictor lookups. (Count)
system.cpu0.branchPred.indirectHits              4367                       # Number of indirect target hits. (Count)
system.cpu0.branchPred.indirectMisses             153                       # Number of indirect misses. (Count)
system.cpu0.branchPred.indirectMispredicted           96                       # Number of mispredicted indirect branches. (Count)
system.cpu0.dcache.demandHits::cpu0.data     11364745                       # number of demand (read+write) hits (Count)
system.cpu0.dcache.demandHits::total         11364745                       # number of demand (read+write) hits (Count)
system.cpu0.dcache.overallHits::cpu0.data     11364745                       # number of overall hits (Count)
system.cpu0.dcache.overallHits::total        11364745                       # number of overall hits (Count)
system.cpu0.dcache.demandMisses::cpu0.data       623855                       # number of demand (read+write) misses (Count)
system.cpu0.dcache.demandMisses::total         623855                       # number of demand (read+write) misses (Count)
system.cpu0.dcache.overallMisses::cpu0.data       623855                       # number of overall misses (Count)
system.cpu0.dcache.overallMisses::total        623855                       # number of overall misses (Count)
system.cpu0.dcache.demandMissLatency::cpu0.data  10580104750                       # number of demand (read+write) miss ticks (Tick)
system.cpu0.dcache.demandMissLatency::total  10580104750                       # number of demand (read+write) miss ticks (Tick)
system.cpu0.dcache.overallMissLatency::cpu0.data  10580104750                       # number of overall miss ticks (Tick)
system.cpu0.dcache.overallMissLatency::total  10580104750                       # number of overall miss ticks (Tick)
system.cpu0.dcache.demandAccesses::cpu0.data     11988600                       # number of demand (read+write) accesses (Count)
system.cpu0.dcache.demandAccesses::total     11988600                       # number of demand (read+write) accesses (Count)
system.cpu0.dcache.overallAccesses::cpu0.data     11988600                       # number of overall (read+write) accesses (Count)
system.cpu0.dcache.overallAccesses::total     11988600                       # number of overall (read+write) accesses (Count)
system.cpu0.dcache.demandMissRate::cpu0.data     0.052037                       # miss rate for demand accesses (Ratio)
system.cpu0.dcache.demandMissRate::total     0.052037                       # miss rate for demand accesses (Ratio)
system.cpu0.dcache.overallMissRate::cpu0.data     0.052037                       # miss rate for overall accesses (Ratio)
system.cpu0.dcache.overallMissRate::total     0.052037                       # miss rate for overall accesses (Ratio)
system.cpu0.dcache.demandAvgMissLatency::cpu0.data 16959.236922                       # average overall miss latency in ticks ((Tick/Count))
system.cpu0.dcache.demandAvgMissLatency::total 16959.236922                       # average overall miss latency in ticks ((Tick/Count))
system.cpu0.dcache.overallAvgMissLatency::cpu0.data 16959.236922                       # average overall miss latency ((Tick/Count))
system.cpu0.dcache.overallAvgMissLatency::total 16959.236922                       # average overall miss latency ((Tick/Count))
system.cpu0.dcache.blockedCycles::no_mshrs            0                       # number of cycles access was blocked (Cycle)
system.cpu0.dcache.blockedCycles::no_targets            0                       # number of cycles access was blocked (Cycle)
system.cpu0.dcache.blockedCauses::no_mshrs            0                       # number of times access was blocked (Count)
system.cpu0.dcache.blockedCauses::no_targets            0                       # number of times access was blocked (Count)
system.cpu0.dcache.avgBlocked::no_mshrs           nan                       # average number of cycles each access was blocked ((Cycle/Count))
system.cpu0.dcache.avgBlocked::no_targets          nan                       # average number of cycles each access was blocked ((Cycle/Count))
system.cpu0.dcache.writebacks::writebacks       366354                       # number of writebacks (Count)
system.cpu0.dcache.writebacks::total           366354                       # number of writebacks (Count)
system.cpu0.dcache.demandMshrHits::cpu0.data       253585                       # number of demand (read+write) MSHR hits (Count)
system.cpu0.dcache.demandMshrHits::total       253585                       # number of demand (read+write) MSHR hits (Count)
system.cpu0.dcache.overallMshrHits::cpu0.data       253585                       # number of overall MSHR hits (Count)
system.cpu0.dcache.overallMshrHits::total       253585                       # number of overall MSHR hits (Count)
system.cpu0.dcache.demandMshrMisses::cpu0.data       370270                       # number of demand (read+write) MSHR misses (Count)
system.cpu0.dcache.demandMshrMisses::total       370270                       # number of demand (read+write) MSHR misses (Count)
system.cpu0.dcache.overallMshrMisses::cpu0.data       370270                       # number of overall MSHR misses (Count)
system.cpu0.dcache.overallMshrMisses::total       370270                       # number of overall MSHR misses (Count)
system.cpu0.dcache.demandMshrMissLatency::cpu0.data   5671750250                       # number of demand (read+write) MSHR miss ticks (Tick)
system.cpu0.dcache.demandMshrMissLatency::total   5671750250                       # number of demand (read+write) MSHR miss ticks (Tick)
system.cpu0.dcache.overallMshrMissLatency::cpu0.data   5671750250                       # number of overall MSHR miss ticks (Tick)
system.cpu0.dcache.overallMshrMissLatency::total   5671750250                       # number of overall MSHR miss ticks (Tick)
system.cpu0.dcache.demandMshrMissRate::cpu0.data     0.030885                       # mshr miss ratio for demand accesses (Ratio)
system.cpu0.dcache.demandMshrMissRate::total     0.030885                       # mshr miss ratio for demand accesses (Ratio)
system.cpu0.dcache.overallMshrMissRate::cpu0.data     0.030885                       # mshr miss ratio for overall accesses (Ratio)
system.cpu0.dcache.overallMshrMissRate::total     0.030885                       # mshr miss ratio for overall accesses (Ratio)
system.cpu0.dcache.demandAvgMshrMissLatency::cpu0.data 15317.876820                       # average overall mshr miss latency ((Tick/Count))
system.cpu0.dcache.demandAvgMshrMissLatency::total 15317.876820                       # average overall mshr miss latency ((Tick/Count))
system.cpu0.dcache.overallAvgMshrMissLatency::cpu0.data 15317.876820                       # average overall mshr miss latency ((Tick/Count))
system.cpu0.dcache.overallAvgMshrMissLatency::total 15317.876820                       # average overall mshr miss latency ((Tick/Count))
system.cpu0.dcache.replacements                370147                       # number of replacements (Count)
system.cpu0.dcache.LoadLockedReq.hits::cpu0.data            5                       # number of LoadLockedReq hits (Count)
system.cpu0.dcache.LoadLockedReq.hits::total            5                       # number of LoadLockedReq hits (Count)
system.cpu0.dcache.LoadLockedReq.misses::cpu0.data            3                       # number of LoadLockedReq misses (Count)
system.cpu0.dcache.LoadLockedReq.misses::total            3                       # number of LoadLockedReq misses (Count)
system.cpu0.dcache.LoadLockedReq.missLatency::cpu0.data        88250                       # number of LoadLockedReq miss ticks (Tick)
system.cpu0.dcache.LoadLockedReq.missLatency::total        88250                       # number of LoadLockedReq miss ticks (Tick)
system.cpu0.dcache.LoadLockedReq.accesses::cpu0.data            8                       # number of LoadLockedReq accesses(hits+misses) (Count)
system.cpu0.dcache.LoadLockedReq.accesses::total            8                       # number of LoadLockedReq accesses(hits+misses) (Count)
system.cpu0.dcache.LoadLockedReq.missRate::cpu0.data     0.375000                       # miss rate for LoadLockedReq accesses (Ratio)
system.cpu0.dcache.LoadLockedReq.missRate::total     0.375000                       # miss rate for LoadLockedReq accesses (Ratio)
system.cpu0.dcache.LoadLockedReq.avgMissLatency::cpu0.data 29416.666667                       # average LoadLockedReq miss latency ((Tick/Count))
system.cpu0.dcache.LoadLockedReq.avgMissLatency::total 29416.666667                       # average LoadLockedReq miss latency ((Tick/Count))
system.cpu0.dcache.LoadLockedReq.mshrMisses::cpu0.data            3                       # number of LoadLockedReq MSHR misses (Count)
system.cpu0.dcache.LoadLockedReq.mshrMisses::total            3                       # number of LoadLockedReq MSHR misses (Count)
system.cpu0.dcache.LoadLockedReq.mshrMissLatency::cpu0.data        86750                       # number of LoadLockedReq MSHR miss ticks (Tick)
system.cpu0.dcache.LoadLockedReq.mshrMissLatency::total        86750                       # number of LoadLockedReq MSHR miss ticks (Tick)
system.cpu0.dcache.LoadLockedReq.mshrMissRate::cpu0.data     0.375000                       # mshr miss rate for LoadLockedReq accesses (Ratio)
system.cpu0.dcache.LoadLockedReq.mshrMissRate::total     0.375000                       # mshr miss rate for LoadLockedReq accesses (Ratio)
system.cpu0.dcache.LoadLockedReq.avgMshrMissLatency::cpu0.data 28916.666667                       # average LoadLockedReq mshr miss latency ((Tick/Count))
system.cpu0.dcache.LoadLockedReq.avgMshrMissLatency::total 28916.666667                       # average LoadLockedReq mshr miss latency ((Tick/Count))
system.cpu0.dcache.ReadReq.hits::cpu0.data      7167306                       # number of ReadReq hits (Count)
system.cpu0.dcache.ReadReq.hits::total        7167306                       # number of ReadReq hits (Count)
system.cpu0.dcache.ReadReq.misses::cpu0.data       163449                       # number of ReadReq misses (Count)
system.cpu0.dcache.ReadReq.misses::total       163449                       # number of ReadReq misses (Count)
system.cpu0.dcache.ReadReq.missLatency::cpu0.data   1211368500                       # number of ReadReq miss ticks (Tick)
system.cpu0.dcache.ReadReq.missLatency::total   1211368500                       # number of ReadReq miss ticks (Tick)
system.cpu0.dcache.ReadReq.accesses::cpu0.data      7330755                       # number of ReadReq accesses(hits+misses) (Count)
system.cpu0.dcache.ReadReq.accesses::total      7330755                       # number of ReadReq accesses(hits+misses) (Count)
system.cpu0.dcache.ReadReq.missRate::cpu0.data     0.022296                       # miss rate for ReadReq accesses (Ratio)
system.cpu0.dcache.ReadReq.missRate::total     0.022296                       # miss rate for ReadReq accesses (Ratio)
system.cpu0.dcache.ReadReq.avgMissLatency::cpu0.data  7411.293431                       # average ReadReq miss latency ((Tick/Count))
system.cpu0.dcache.ReadReq.avgMissLatency::total  7411.293431                       # average ReadReq miss latency ((Tick/Count))
system.cpu0.dcache.ReadReq.mshrHits::cpu0.data        23697                       # number of ReadReq MSHR hits (Count)
system.cpu0.dcache.ReadReq.mshrHits::total        23697                       # number of ReadReq MSHR hits (Count)
system.cpu0.dcache.ReadReq.mshrMisses::cpu0.data       139752                       # number of ReadReq MSHR misses (Count)
system.cpu0.dcache.ReadReq.mshrMisses::total       139752                       # number of ReadReq MSHR misses (Count)
system.cpu0.dcache.ReadReq.mshrMissLatency::cpu0.data    937743250                       # number of ReadReq MSHR miss ticks (Tick)
system.cpu0.dcache.ReadReq.mshrMissLatency::total    937743250                       # number of ReadReq MSHR miss ticks (Tick)
system.cpu0.dcache.ReadReq.mshrMissRate::cpu0.data     0.019064                       # mshr miss rate for ReadReq accesses (Ratio)
system.cpu0.dcache.ReadReq.mshrMissRate::total     0.019064                       # mshr miss rate for ReadReq accesses (Ratio)
system.cpu0.dcache.ReadReq.avgMshrMissLatency::cpu0.data  6710.052450                       # average ReadReq mshr miss latency ((Tick/Count))
system.cpu0.dcache.ReadReq.avgMshrMissLatency::total  6710.052450                       # average ReadReq mshr miss latency ((Tick/Count))
system.cpu0.dcache.StoreCondReq.hits::cpu0.data            8                       # number of StoreCondReq hits (Count)
system.cpu0.dcache.StoreCondReq.hits::total            8                       # number of StoreCondReq hits (Count)
system.cpu0.dcache.StoreCondReq.accesses::cpu0.data            8                       # number of StoreCondReq accesses(hits+misses) (Count)
system.cpu0.dcache.StoreCondReq.accesses::total            8                       # number of StoreCondReq accesses(hits+misses) (Count)
system.cpu0.dcache.SwapReq.hits::cpu0.data           31                       # number of SwapReq hits (Count)
system.cpu0.dcache.SwapReq.hits::total             31                       # number of SwapReq hits (Count)
system.cpu0.dcache.SwapReq.misses::cpu0.data            2                       # number of SwapReq misses (Count)
system.cpu0.dcache.SwapReq.misses::total            2                       # number of SwapReq misses (Count)
system.cpu0.dcache.SwapReq.missLatency::cpu0.data        67250                       # number of SwapReq miss ticks (Tick)
system.cpu0.dcache.SwapReq.missLatency::total        67250                       # number of SwapReq miss ticks (Tick)
system.cpu0.dcache.SwapReq.accesses::cpu0.data           33                       # number of SwapReq accesses(hits+misses) (Count)
system.cpu0.dcache.SwapReq.accesses::total           33                       # number of SwapReq accesses(hits+misses) (Count)
system.cpu0.dcache.SwapReq.missRate::cpu0.data     0.060606                       # miss rate for SwapReq accesses (Ratio)
system.cpu0.dcache.SwapReq.missRate::total     0.060606                       # miss rate for SwapReq accesses (Ratio)
system.cpu0.dcache.SwapReq.avgMissLatency::cpu0.data        33625                       # average SwapReq miss latency ((Tick/Count))
system.cpu0.dcache.SwapReq.avgMissLatency::total        33625                       # average SwapReq miss latency ((Tick/Count))
system.cpu0.dcache.SwapReq.mshrMisses::cpu0.data            2                       # number of SwapReq MSHR misses (Count)
system.cpu0.dcache.SwapReq.mshrMisses::total            2                       # number of SwapReq MSHR misses (Count)
system.cpu0.dcache.SwapReq.mshrMissLatency::cpu0.data        66250                       # number of SwapReq MSHR miss ticks (Tick)
system.cpu0.dcache.SwapReq.mshrMissLatency::total        66250                       # number of SwapReq MSHR miss ticks (Tick)
system.cpu0.dcache.SwapReq.mshrMissRate::cpu0.data     0.060606                       # mshr miss rate for SwapReq accesses (Ratio)
system.cpu0.dcache.SwapReq.mshrMissRate::total     0.060606                       # mshr miss rate for SwapReq accesses (Ratio)
system.cpu0.dcache.SwapReq.avgMshrMissLatency::cpu0.data        33125                       # average SwapReq mshr miss latency ((Tick/Count))
system.cpu0.dcache.SwapReq.avgMshrMissLatency::total        33125                       # average SwapReq mshr miss latency ((Tick/Count))
system.cpu0.dcache.WriteReq.hits::cpu0.data      4197439                       # number of WriteReq hits (Count)
system.cpu0.dcache.WriteReq.hits::total       4197439                       # number of WriteReq hits (Count)
system.cpu0.dcache.WriteReq.misses::cpu0.data       460406                       # number of WriteReq misses (Count)
system.cpu0.dcache.WriteReq.misses::total       460406                       # number of WriteReq misses (Count)
system.cpu0.dcache.WriteReq.missLatency::cpu0.data   9368736250                       # number of WriteReq miss ticks (Tick)
system.cpu0.dcache.WriteReq.missLatency::total   9368736250                       # number of WriteReq miss ticks (Tick)
system.cpu0.dcache.WriteReq.accesses::cpu0.data      4657845                       # number of WriteReq accesses(hits+misses) (Count)
system.cpu0.dcache.WriteReq.accesses::total      4657845                       # number of WriteReq accesses(hits+misses) (Count)
system.cpu0.dcache.WriteReq.missRate::cpu0.data     0.098845                       # miss rate for WriteReq accesses (Ratio)
system.cpu0.dcache.WriteReq.missRate::total     0.098845                       # miss rate for WriteReq accesses (Ratio)
system.cpu0.dcache.WriteReq.avgMissLatency::cpu0.data 20348.857856                       # average WriteReq miss latency ((Tick/Count))
system.cpu0.dcache.WriteReq.avgMissLatency::total 20348.857856                       # average WriteReq miss latency ((Tick/Count))
system.cpu0.dcache.WriteReq.mshrHits::cpu0.data       229888                       # number of WriteReq MSHR hits (Count)
system.cpu0.dcache.WriteReq.mshrHits::total       229888                       # number of WriteReq MSHR hits (Count)
system.cpu0.dcache.WriteReq.mshrMisses::cpu0.data       230518                       # number of WriteReq MSHR misses (Count)
system.cpu0.dcache.WriteReq.mshrMisses::total       230518                       # number of WriteReq MSHR misses (Count)
system.cpu0.dcache.WriteReq.mshrMissLatency::cpu0.data   4734007000                       # number of WriteReq MSHR miss ticks (Tick)
system.cpu0.dcache.WriteReq.mshrMissLatency::total   4734007000                       # number of WriteReq MSHR miss ticks (Tick)
system.cpu0.dcache.WriteReq.mshrMissRate::cpu0.data     0.049490                       # mshr miss rate for WriteReq accesses (Ratio)
system.cpu0.dcache.WriteReq.mshrMissRate::total     0.049490                       # mshr miss rate for WriteReq accesses (Ratio)
system.cpu0.dcache.WriteReq.avgMshrMissLatency::cpu0.data 20536.387614                       # average WriteReq mshr miss latency ((Tick/Count))
system.cpu0.dcache.WriteReq.avgMshrMissLatency::total 20536.387614                       # average WriteReq mshr miss latency ((Tick/Count))
system.cpu0.dcache.power_state.pwrStateResidencyTicks::UNDEFINED  18146203250                       # Cumulative time (in ticks) in various power states (Tick)
system.cpu0.dcache.tags.tagsInUse          127.925257                       # Average ticks per tags in use ((Tick/Count))
system.cpu0.dcache.tags.totalRefs            11735064                       # Total number of references to valid blocks. (Count)
system.cpu0.dcache.tags.sampledRefs            370275                       # Sample count of references to valid blocks. (Count)
system.cpu0.dcache.tags.avgRefs             31.692834                       # Average number of references to valid blocks. ((Count/Count))
system.cpu0.dcache.tags.warmupTick             159250                       # The tick when the warmup percentage was hit. (Tick)
system.cpu0.dcache.tags.occupancies::cpu0.data   127.925257                       # Average occupied blocks per tick, per requestor ((Count/Tick))
system.cpu0.dcache.tags.avgOccs::cpu0.data     0.999416                       # Average percentage of cache occupancy ((Ratio/Tick))
system.cpu0.dcache.tags.avgOccs::total       0.999416                       # Average percentage of cache occupancy ((Ratio/Tick))
system.cpu0.dcache.tags.occupanciesTaskId::1024          128                       # Occupied blocks per task id (Count)
system.cpu0.dcache.tags.ageTaskId_1024::0          114                       # Occupied blocks per task id, per block age (Count)
system.cpu0.dcache.tags.ageTaskId_1024::1           14                       # Occupied blocks per task id, per block age (Count)
system.cpu0.dcache.tags.ratioOccsTaskId::1024            1                       # Ratio of occupied blocks and all blocks, per task id (Ratio)
system.cpu0.dcache.tags.tagAccesses          24347573                       # Number of tag accesses (Count)
system.cpu0.dcache.tags.dataAccesses         24347573                       # Number of data accesses (Count)
system.cpu0.dcache.tags.power_state.pwrStateResidencyTicks::UNDEFINED  18146203250                       # Cumulative time (in ticks) in various power states (Tick)
system.cpu0.dtb_walker_cache.blockedCycles::no_mshrs            0                       # number of cycles access was blocked (Cycle)
system.cpu0.dtb_walker_cache.blockedCycles::no_targets            0                       # number of cycles access was blocked (Cycle)
system.cpu0.dtb_walker_cache.blockedCauses::no_mshrs            0                       # number of times access was blocked (Count)
system.cpu0.dtb_walker_cache.blockedCauses::no_targets            0                       # number of times access was blocked (Count)
system.cpu0.dtb_walker_cache.avgBlocked::no_mshrs          nan                       # average number of cycles each access was blocked ((Cycle/Count))
system.cpu0.dtb_walker_cache.avgBlocked::no_targets          nan                       # average number of cycles each access was blocked ((Cycle/Count))
system.cpu0.dtb_walker_cache.replacements            0                       # number of replacements (Count)
system.cpu0.dtb_walker_cache.power_state.pwrStateResidencyTicks::UNDEFINED  18146203250                       # Cumulative time (in ticks) in various power states (Tick)
system.cpu0.dtb_walker_cache.tags.tagsInUse            0                       # Average ticks per tags in use ((Tick/Count))
system.cpu0.dtb_walker_cache.tags.totalRefs            0                       # Total number of references to valid blocks. (Count)
system.cpu0.dtb_walker_cache.tags.sampledRefs            0                       # Sample count of references to valid blocks. (Count)
system.cpu0.dtb_walker_cache.tags.avgRefs          nan                       # Average number of references to valid blocks. ((Count/Count))
system.cpu0.dtb_walker_cache.tags.warmupTick            0                       # The tick when the warmup percentage was hit. (Tick)
system.cpu0.dtb_walker_cache.tags.tagAccesses            0                       # Number of tag accesses (Count)
system.cpu0.dtb_walker_cache.tags.dataAccesses            0                       # Number of data accesses (Count)
system.cpu0.dtb_walker_cache.tags.power_state.pwrStateResidencyTicks::UNDEFINED  18146203250                       # Cumulative time (in ticks) in various power states (Tick)
system.cpu0.fetch2.intInstructions           23022880                       # Number of integer instructions successfully decoded (Count)
system.cpu0.fetch2.fpInstructions            10453468                       # Number of floating point instructions successfully decoded (Count)
system.cpu0.fetch2.vecInstructions                  0                       # Number of SIMD instructions successfully decoded (Count)
system.cpu0.fetch2.loadInstructions           7913864                       # Number of memory load instructions successfully decoded (Count)
system.cpu0.fetch2.storeInstructions          4727473                       # Number of memory store instructions successfully decoded (Count)
system.cpu0.fetch2.amoInstructions                  0                       # Number of memory atomic instructions successfully decoded (Count)
system.cpu0.icache.demandHits::cpu0.inst     10723929                       # number of demand (read+write) hits (Count)
system.cpu0.icache.demandHits::total         10723929                       # number of demand (read+write) hits (Count)
system.cpu0.icache.overallHits::cpu0.inst     10723929                       # number of overall hits (Count)
system.cpu0.icache.overallHits::total        10723929                       # number of overall hits (Count)
system.cpu0.icache.demandMisses::cpu0.inst         2071                       # number of demand (read+write) misses (Count)
system.cpu0.icache.demandMisses::total           2071                       # number of demand (read+write) misses (Count)
system.cpu0.icache.overallMisses::cpu0.inst         2071                       # number of overall misses (Count)
system.cpu0.icache.overallMisses::total          2071                       # number of overall misses (Count)
system.cpu0.icache.demandMissLatency::cpu0.inst     57918250                       # number of demand (read+write) miss ticks (Tick)
system.cpu0.icache.demandMissLatency::total     57918250                       # number of demand (read+write) miss ticks (Tick)
system.cpu0.icache.overallMissLatency::cpu0.inst     57918250                       # number of overall miss ticks (Tick)
system.cpu0.icache.overallMissLatency::total     57918250                       # number of overall miss ticks (Tick)
system.cpu0.icache.demandAccesses::cpu0.inst     10726000                       # number of demand (read+write) accesses (Count)
system.cpu0.icache.demandAccesses::total     10726000                       # number of demand (read+write) accesses (Count)
system.cpu0.icache.overallAccesses::cpu0.inst     10726000                       # number of overall (read+write) accesses (Count)
system.cpu0.icache.overallAccesses::total     10726000                       # number of overall (read+write) accesses (Count)
system.cpu0.icache.demandMissRate::cpu0.inst     0.000193                       # miss rate for demand accesses (Ratio)
system.cpu0.icache.demandMissRate::total     0.000193                       # miss rate for demand accesses (Ratio)
system.cpu0.icache.overallMissRate::cpu0.inst     0.000193                       # miss rate for overall accesses (Ratio)
system.cpu0.icache.overallMissRate::total     0.000193                       # miss rate for overall accesses (Ratio)
system.cpu0.icache.demandAvgMissLatency::cpu0.inst 27966.320618                       # average overall miss latency in ticks ((Tick/Count))
system.cpu0.icache.demandAvgMissLatency::total 27966.320618                       # average overall miss latency in ticks ((Tick/Count))
system.cpu0.icache.overallAvgMissLatency::cpu0.inst 27966.320618                       # average overall miss latency ((Tick/Count))
system.cpu0.icache.overallAvgMissLatency::total 27966.320618                       # average overall miss latency ((Tick/Count))
system.cpu0.icache.blockedCycles::no_mshrs            0                       # number of cycles access was blocked (Cycle)
system.cpu0.icache.blockedCycles::no_targets            0                       # number of cycles access was blocked (Cycle)
system.cpu0.icache.blockedCauses::no_mshrs            0                       # number of times access was blocked (Count)
system.cpu0.icache.blockedCauses::no_targets            0                       # number of times access was blocked (Count)
system.cpu0.icache.avgBlocked::no_mshrs           nan                       # average number of cycles each access was blocked ((Cycle/Count))
system.cpu0.icache.avgBlocked::no_targets          nan                       # average number of cycles each access was blocked ((Cycle/Count))
system.cpu0.icache.writebacks::writebacks         1942                       # number of writebacks (Count)
system.cpu0.icache.writebacks::total             1942                       # number of writebacks (Count)
system.cpu0.icache.demandMshrMisses::cpu0.inst         2071                       # number of demand (read+write) MSHR misses (Count)
system.cpu0.icache.demandMshrMisses::total         2071                       # number of demand (read+write) MSHR misses (Count)
system.cpu0.icache.overallMshrMisses::cpu0.inst         2071                       # number of overall MSHR misses (Count)
system.cpu0.icache.overallMshrMisses::total         2071                       # number of overall MSHR misses (Count)
system.cpu0.icache.demandMshrMissLatency::cpu0.inst     56883250                       # number of demand (read+write) MSHR miss ticks (Tick)
system.cpu0.icache.demandMshrMissLatency::total     56883250                       # number of demand (read+write) MSHR miss ticks (Tick)
system.cpu0.icache.overallMshrMissLatency::cpu0.inst     56883250                       # number of overall MSHR miss ticks (Tick)
system.cpu0.icache.overallMshrMissLatency::total     56883250                       # number of overall MSHR miss ticks (Tick)
system.cpu0.icache.demandMshrMissRate::cpu0.inst     0.000193                       # mshr miss ratio for demand accesses (Ratio)
system.cpu0.icache.demandMshrMissRate::total     0.000193                       # mshr miss ratio for demand accesses (Ratio)
system.cpu0.icache.overallMshrMissRate::cpu0.inst     0.000193                       # mshr miss ratio for overall accesses (Ratio)
system.cpu0.icache.overallMshrMissRate::total     0.000193                       # mshr miss ratio for overall accesses (Ratio)
system.cpu0.icache.demandAvgMshrMissLatency::cpu0.inst 27466.562047                       # average overall mshr miss latency ((Tick/Count))
system.cpu0.icache.demandAvgMshrMissLatency::total 27466.562047                       # average overall mshr miss latency ((Tick/Count))
system.cpu0.icache.overallAvgMshrMissLatency::cpu0.inst 27466.562047                       # average overall mshr miss latency ((Tick/Count))
system.cpu0.icache.overallAvgMshrMissLatency::total 27466.562047                       # average overall mshr miss latency ((Tick/Count))
system.cpu0.icache.replacements                  1942                       # number of replacements (Count)
system.cpu0.icache.ReadReq.hits::cpu0.inst     10723929                       # number of ReadReq hits (Count)
system.cpu0.icache.ReadReq.hits::total       10723929                       # number of ReadReq hits (Count)
system.cpu0.icache.ReadReq.misses::cpu0.inst         2071                       # number of ReadReq misses (Count)
system.cpu0.icache.ReadReq.misses::total         2071                       # number of ReadReq misses (Count)
system.cpu0.icache.ReadReq.missLatency::cpu0.inst     57918250                       # number of ReadReq miss ticks (Tick)
system.cpu0.icache.ReadReq.missLatency::total     57918250                       # number of ReadReq miss ticks (Tick)
system.cpu0.icache.ReadReq.accesses::cpu0.inst     10726000                       # number of ReadReq accesses(hits+misses) (Count)
system.cpu0.icache.ReadReq.accesses::total     10726000                       # number of ReadReq accesses(hits+misses) (Count)
system.cpu0.icache.ReadReq.missRate::cpu0.inst     0.000193                       # miss rate for ReadReq accesses (Ratio)
system.cpu0.icache.ReadReq.missRate::total     0.000193                       # miss rate for ReadReq accesses (Ratio)
system.cpu0.icache.ReadReq.avgMissLatency::cpu0.inst 27966.320618                       # average ReadReq miss latency ((Tick/Count))
system.cpu0.icache.ReadReq.avgMissLatency::total 27966.320618                       # average ReadReq miss latency ((Tick/Count))
system.cpu0.icache.ReadReq.mshrMisses::cpu0.inst         2071                       # number of ReadReq MSHR misses (Count)
system.cpu0.icache.ReadReq.mshrMisses::total         2071                       # number of ReadReq MSHR misses (Count)
system.cpu0.icache.ReadReq.mshrMissLatency::cpu0.inst     56883250                       # number of ReadReq MSHR miss ticks (Tick)
system.cpu0.icache.ReadReq.mshrMissLatency::total     56883250                       # number of ReadReq MSHR miss ticks (Tick)
system.cpu0.icache.ReadReq.mshrMissRate::cpu0.inst     0.000193                       # mshr miss rate for ReadReq accesses (Ratio)
system.cpu0.icache.ReadReq.mshrMissRate::total     0.000193                       # mshr miss rate for ReadReq accesses (Ratio)
system.cpu0.icache.ReadReq.avgMshrMissLatency::cpu0.inst 27466.562047                       # average ReadReq mshr miss latency ((Tick/Count))
system.cpu0.icache.ReadReq.avgMshrMissLatency::total 27466.562047                       # average ReadReq mshr miss latency ((Tick/Count))
system.cpu0.icache.power_state.pwrStateResidencyTicks::UNDEFINED  18146203250                       # Cumulative time (in ticks) in various power states (Tick)
system.cpu0.icache.tags.tagsInUse          127.908252                       # Average ticks per tags in use ((Tick/Count))
system.cpu0.icache.tags.totalRefs            10725999                       # Total number of references to valid blocks. (Count)
system.cpu0.icache.tags.sampledRefs              2070                       # Sample count of references to valid blocks. (Count)
system.cpu0.icache.tags.avgRefs           5181.642029                       # Average number of references to valid blocks. ((Count/Count))
system.cpu0.icache.tags.warmupTick              82250                       # The tick when the warmup percentage was hit. (Tick)
system.cpu0.icache.tags.occupancies::cpu0.inst   127.908252                       # Average occupied blocks per tick, per requestor ((Count/Tick))
system.cpu0.icache.tags.avgOccs::cpu0.inst     0.999283                       # Average percentage of cache occupancy ((Ratio/Tick))
system.cpu0.icache.tags.avgOccs::total       0.999283                       # Average percentage of cache occupancy ((Ratio/Tick))
system.cpu0.icache.tags.occupanciesTaskId::1024          128                       # Occupied blocks per task id (Count)
system.cpu0.icache.tags.ageTaskId_1024::0           58                       # Occupied blocks per task id, per block age (Count)
system.cpu0.icache.tags.ageTaskId_1024::1           62                       # Occupied blocks per task id, per block age (Count)
system.cpu0.icache.tags.ageTaskId_1024::3            1                       # Occupied blocks per task id, per block age (Count)
system.cpu0.icache.tags.ageTaskId_1024::4            7                       # Occupied blocks per task id, per block age (Count)
system.cpu0.icache.tags.ratioOccsTaskId::1024            1                       # Ratio of occupied blocks and all blocks, per task id (Ratio)
system.cpu0.icache.tags.tagAccesses          21454070                       # Number of tag accesses (Count)
system.cpu0.icache.tags.dataAccesses         21454070                       # Number of data accesses (Count)
system.cpu0.icache.tags.power_state.pwrStateResidencyTicks::UNDEFINED  18146203250                       # Cumulative time (in ticks) in various power states (Tick)
system.cpu0.itb_walker_cache.blockedCycles::no_mshrs            0                       # number of cycles access was blocked (Cycle)
system.cpu0.itb_walker_cache.blockedCycles::no_targets            0                       # number of cycles access was blocked (Cycle)
system.cpu0.itb_walker_cache.blockedCauses::no_mshrs            0                       # number of times access was blocked (Count)
system.cpu0.itb_walker_cache.blockedCauses::no_targets            0                       # number of times access was blocked (Count)
system.cpu0.itb_walker_cache.avgBlocked::no_mshrs          nan                       # average number of cycles each access was blocked ((Cycle/Count))
system.cpu0.itb_walker_cache.avgBlocked::no_targets          nan                       # average number of cycles each access was blocked ((Cycle/Count))
system.cpu0.itb_walker_cache.replacements            0                       # number of replacements (Count)
system.cpu0.itb_walker_cache.power_state.pwrStateResidencyTicks::UNDEFINED  18146203250                       # Cumulative time (in ticks) in various power states (Tick)
system.cpu0.itb_walker_cache.tags.tagsInUse            0                       # Average ticks per tags in use ((Tick/Count))
system.cpu0.itb_walker_cache.tags.totalRefs            0                       # Total number of references to valid blocks. (Count)
system.cpu0.itb_walker_cache.tags.sampledRefs            0                       # Sample count of references to valid blocks. (Count)
system.cpu0.itb_walker_cache.tags.avgRefs          nan                       # Average number of references to valid blocks. ((Count/Count))
system.cpu0.itb_walker_cache.tags.warmupTick            0                       # The tick when the warmup percentage was hit. (Tick)
system.cpu0.itb_walker_cache.tags.tagAccesses            0                       # Number of tag accesses (Count)
system.cpu0.itb_walker_cache.tags.dataAccesses            0                       # Number of data accesses (Count)
system.cpu0.itb_walker_cache.tags.power_state.pwrStateResidencyTicks::UNDEFINED  18146203250                       # Cumulative time (in ticks) in various power states (Tick)
system.cpu0.mmu.dtb.readHits                        0                       # read hits (Count)
system.cpu0.mmu.dtb.readMisses                      0                       # read misses (Count)
system.cpu0.mmu.dtb.readAccesses                    0                       # read accesses (Count)
system.cpu0.mmu.dtb.writeHits                       0                       # write hits (Count)
system.cpu0.mmu.dtb.writeMisses                     0                       # write misses (Count)
system.cpu0.mmu.dtb.writeAccesses                   0                       # write accesses (Count)
system.cpu0.mmu.dtb.hits                            0                       # Total TLB (read and write) hits (Count)
system.cpu0.mmu.dtb.misses                          0                       # Total TLB (read and write) misses (Count)
system.cpu0.mmu.dtb.accesses                        0                       # Total TLB (read and write) accesses (Count)
system.cpu0.mmu.dtb.walker.power_state.pwrStateResidencyTicks::UNDEFINED  18146203250                       # Cumulative time (in ticks) in various power states (Tick)
system.cpu0.mmu.itb.readHits                        0                       # read hits (Count)
system.cpu0.mmu.itb.readMisses                      0                       # read misses (Count)
system.cpu0.mmu.itb.readAccesses                    0                       # read accesses (Count)
system.cpu0.mmu.itb.writeHits                       0                       # write hits (Count)
system.cpu0.mmu.itb.writeMisses                     0                       # write misses (Count)
system.cpu0.mmu.itb.writeAccesses                   0                       # write accesses (Count)
system.cpu0.mmu.itb.hits                            0                       # Total TLB (read and write) hits (Count)
system.cpu0.mmu.itb.misses                          0                       # Total TLB (read and write) misses (Count)
system.cpu0.mmu.itb.accesses                        0                       # Total TLB (read and write) accesses (Count)
system.cpu0.mmu.itb.walker.power_state.pwrStateResidencyTicks::UNDEFINED  18146203250                       # Cumulative time (in ticks) in various power states (Tick)
system.cpu0.power_state.pwrStateResidencyTicks::ON  18146203250                       # Cumulative time (in ticks) in various power states (Tick)
system.cpu0.thread_0.numInsts                44331489                       # Number of Instructions committed (Count)
system.cpu0.thread_0.numOps                  44331512                       # Number of Ops committed (Count)
system.cpu0.thread_0.numMemRefs                     0                       # Number of Memory References (Count)
system.cpu0.workload.numSyscalls                   26                       # Number of system calls (Count)
system.cpu1.numCycles                               2                       # Number of cpu cycles simulated (Cycle)
system.cpu1.numWorkItemsStarted                     0                       # Number of work items this cpu started (Count)
system.cpu1.numWorkItemsCompleted                   0                       # Number of work items this cpu completed (Count)
system.cpu1.numInsts                                0                       # Number of instructions committed (Count)
system.cpu1.numOps                                  0                       # Number of ops (including micro ops) committed (Count)
system.cpu1.numDiscardedOps                         0                       # Number of ops (including micro ops) which were discarded before commit (Count)
system.cpu1.numFetchSuspends                        0                       # Number of times Execute suspended instruction fetching (Count)
system.cpu1.cpi                                   inf                       # CPI: cycles per instruction ((Cycle/Count))
system.cpu1.ipc                              0.000000                       # IPC: instructions per cycle ((Count/Cycle))
system.cpu1.committedInstType_0::No_OpClass            0                       # Class of committed instruction (Count)
system.cpu1.committedInstType_0::IntAlu             0                       # Class of committed instruction (Count)
system.cpu1.committedInstType_0::IntMult            0                       # Class of committed instruction (Count)
system.cpu1.committedInstType_0::IntDiv             0                       # Class of committed instruction (Count)
system.cpu1.committedInstType_0::FloatAdd            0                       # Class of committed instruction (Count)
system.cpu1.committedInstType_0::FloatCmp            0                       # Class of committed instruction (Count)
system.cpu1.committedInstType_0::FloatCvt            0                       # Class of committed instruction (Count)
system.cpu1.committedInstType_0::FloatMult            0                       # Class of committed instruction (Count)
system.cpu1.committedInstType_0::FloatMultAcc            0                       # Class of committed instruction (Count)
system.cpu1.committedInstType_0::FloatDiv            0                       # Class of committed instruction (Count)
system.cpu1.committedInstType_0::FloatMisc            0                       # Class of committed instruction (Count)
system.cpu1.committedInstType_0::FloatSqrt            0                       # Class of committed instruction (Count)
system.cpu1.committedInstType_0::SimdAdd            0                       # Class of committed instruction (Count)
system.cpu1.committedInstType_0::SimdAddAcc            0                       # Class of committed instruction (Count)
system.cpu1.committedInstType_0::SimdAlu            0                       # Class of committed instruction (Count)
system.cpu1.committedInstType_0::SimdCmp            0                       # Class of committed instruction (Count)
system.cpu1.committedInstType_0::SimdCvt            0                       # Class of committed instruction (Count)
system.cpu1.committedInstType_0::SimdMisc            0                       # Class of committed instruction (Count)
system.cpu1.committedInstType_0::SimdMult            0                       # Class of committed instruction (Count)
system.cpu1.committedInstType_0::SimdMultAcc            0                       # Class of committed instruction (Count)
system.cpu1.committedInstType_0::SimdShift            0                       # Class of committed instruction (Count)
system.cpu1.committedInstType_0::SimdShiftAcc            0                       # Class of committed instruction (Count)
system.cpu1.committedInstType_0::SimdDiv            0                       # Class of committed instruction (Count)
system.cpu1.committedInstType_0::SimdSqrt            0                       # Class of committed instruction (Count)
system.cpu1.committedInstType_0::SimdFloatAdd            0                       # Class of committed instruction (Count)
system.cpu1.committedInstType_0::SimdFloatAlu            0                       # Class of committed instruction (Count)
system.cpu1.committedInstType_0::SimdFloatCmp            0                       # Class of committed instruction (Count)
system.cpu1.committedInstType_0::SimdFloatCvt            0                       # Class of committed instruction (Count)
system.cpu1.committedInstType_0::SimdFloatDiv            0                       # Class of committed instruction (Count)
system.cpu1.committedInstType_0::SimdFloatMisc            0                       # Class of committed instruction (Count)
system.cpu1.committedInstType_0::SimdFloatMult            0                       # Class of committed instruction (Count)
system.cpu1.committedInstType_0::SimdFloatMultAcc            0                       # Class of committed instruction (Count)
system.cpu1.committedInstType_0::SimdFloatSqrt            0                       # Class of committed instruction (Count)
system.cpu1.committedInstType_0::SimdReduceAdd            0                       # Class of committed instruction (Count)
system.cpu1.committedInstType_0::SimdReduceAlu            0                       # Class of committed instruction (Count)
system.cpu1.committedInstType_0::SimdReduceCmp            0                       # Class of committed instruction (Count)
system.cpu1.committedInstType_0::SimdFloatReduceAdd            0                       # Class of committed instruction (Count)
system.cpu1.committedInstType_0::SimdFloatReduceCmp            0                       # Class of committed instruction (Count)
system.cpu1.committedInstType_0::SimdAes            0                       # Class of committed instruction (Count)
system.cpu1.committedInstType_0::SimdAesMix            0                       # Class of committed instruction (Count)
system.cpu1.committedInstType_0::SimdSha1Hash            0                       # Class of committed instruction (Count)
system.cpu1.committedInstType_0::SimdSha1Hash2            0                       # Class of committed instruction (Count)
system.cpu1.committedInstType_0::SimdSha256Hash            0                       # Class of committed instruction (Count)
system.cpu1.committedInstType_0::SimdSha256Hash2            0                       # Class of committed instruction (Count)
system.cpu1.committedInstType_0::SimdShaSigma2            0                       # Class of committed instruction (Count)
system.cpu1.committedInstType_0::SimdShaSigma3            0                       # Class of committed instruction (Count)
system.cpu1.committedInstType_0::SimdPredAlu            0                       # Class of committed instruction (Count)
system.cpu1.committedInstType_0::MemRead            0                       # Class of committed instruction (Count)
system.cpu1.committedInstType_0::MemWrite            0                       # Class of committed instruction (Count)
system.cpu1.committedInstType_0::FloatMemRead            0                       # Class of committed instruction (Count)
system.cpu1.committedInstType_0::FloatMemWrite            0                       # Class of committed instruction (Count)
system.cpu1.committedInstType_0::IprAccess            0                       # Class of committed instruction (Count)
system.cpu1.committedInstType_0::InstPrefetch            0                       # Class of committed instruction (Count)
system.cpu1.committedInstType_0::total              0                       # Class of committed instruction (Count)
system.cpu1.branchPred.lookups                      0                       # Number of BP lookups (Count)
system.cpu1.branchPred.condPredicted                0                       # Number of conditional branches predicted (Count)
system.cpu1.branchPred.condIncorrect                0                       # Number of conditional branches incorrect (Count)
system.cpu1.branchPred.BTBLookups                   0                       # Number of BTB lookups (Count)
system.cpu1.branchPred.BTBHits                      0                       # Number of BTB hits (Count)
system.cpu1.branchPred.BTBHitRatio                nan                       # BTB Hit Ratio (Ratio)
system.cpu1.branchPred.RASUsed                      0                       # Number of times the RAS was used to get a target. (Count)
system.cpu1.branchPred.RASIncorrect                 0                       # Number of incorrect RAS predictions. (Count)
system.cpu1.branchPred.indirectLookups              0                       # Number of indirect predictor lookups. (Count)
system.cpu1.branchPred.indirectHits                 0                       # Number of indirect target hits. (Count)
system.cpu1.branchPred.indirectMisses               0                       # Number of indirect misses. (Count)
system.cpu1.branchPred.indirectMispredicted            0                       # Number of mispredicted indirect branches. (Count)
system.cpu1.dcache.blockedCycles::no_mshrs            0                       # number of cycles access was blocked (Cycle)
system.cpu1.dcache.blockedCycles::no_targets            0                       # number of cycles access was blocked (Cycle)
system.cpu1.dcache.blockedCauses::no_mshrs            0                       # number of times access was blocked (Count)
system.cpu1.dcache.blockedCauses::no_targets            0                       # number of times access was blocked (Count)
system.cpu1.dcache.avgBlocked::no_mshrs           nan                       # average number of cycles each access was blocked ((Cycle/Count))
system.cpu1.dcache.avgBlocked::no_targets          nan                       # average number of cycles each access was blocked ((Cycle/Count))
system.cpu1.dcache.replacements                     0                       # number of replacements (Count)
system.cpu1.dcache.power_state.pwrStateResidencyTicks::UNDEFINED  18146203250                       # Cumulative time (in ticks) in various power states (Tick)
system.cpu1.dcache.tags.tagsInUse                   0                       # Average ticks per tags in use ((Tick/Count))
system.cpu1.dcache.tags.totalRefs                   0                       # Total number of references to valid blocks. (Count)
system.cpu1.dcache.tags.sampledRefs                 0                       # Sample count of references to valid blocks. (Count)
system.cpu1.dcache.tags.avgRefs                   nan                       # Average number of references to valid blocks. ((Count/Count))
system.cpu1.dcache.tags.warmupTick                  0                       # The tick when the warmup percentage was hit. (Tick)
system.cpu1.dcache.tags.tagAccesses                 0                       # Number of tag accesses (Count)
system.cpu1.dcache.tags.dataAccesses                0                       # Number of data accesses (Count)
system.cpu1.dcache.tags.power_state.pwrStateResidencyTicks::UNDEFINED  18146203250                       # Cumulative time (in ticks) in various power states (Tick)
system.cpu1.dtb_walker_cache.blockedCycles::no_mshrs            0                       # number of cycles access was blocked (Cycle)
system.cpu1.dtb_walker_cache.blockedCycles::no_targets            0                       # number of cycles access was blocked (Cycle)
system.cpu1.dtb_walker_cache.blockedCauses::no_mshrs            0                       # number of times access was blocked (Count)
system.cpu1.dtb_walker_cache.blockedCauses::no_targets            0                       # number of times access was blocked (Count)
system.cpu1.dtb_walker_cache.avgBlocked::no_mshrs          nan                       # average number of cycles each access was blocked ((Cycle/Count))
system.cpu1.dtb_walker_cache.avgBlocked::no_targets          nan                       # average number of cycles each access was blocked ((Cycle/Count))
system.cpu1.dtb_walker_cache.replacements            0                       # number of replacements (Count)
system.cpu1.dtb_walker_cache.power_state.pwrStateResidencyTicks::UNDEFINED  18146203250                       # Cumulative time (in ticks) in various power states (Tick)
system.cpu1.dtb_walker_cache.tags.tagsInUse            0                       # Average ticks per tags in use ((Tick/Count))
system.cpu1.dtb_walker_cache.tags.totalRefs            0                       # Total number of references to valid blocks. (Count)
system.cpu1.dtb_walker_cache.tags.sampledRefs            0                       # Sample count of references to valid blocks. (Count)
system.cpu1.dtb_walker_cache.tags.avgRefs          nan                       # Average number of references to valid blocks. ((Count/Count))
system.cpu1.dtb_walker_cache.tags.warmupTick            0                       # The tick when the warmup percentage was hit. (Tick)
system.cpu1.dtb_walker_cache.tags.tagAccesses            0                       # Number of tag accesses (Count)
system.cpu1.dtb_walker_cache.tags.dataAccesses            0                       # Number of data accesses (Count)
system.cpu1.dtb_walker_cache.tags.power_state.pwrStateResidencyTicks::UNDEFINED  18146203250                       # Cumulative time (in ticks) in various power states (Tick)
system.cpu1.fetch2.intInstructions                  0                       # Number of integer instructions successfully decoded (Count)
system.cpu1.fetch2.fpInstructions                   0                       # Number of floating point instructions successfully decoded (Count)
system.cpu1.fetch2.vecInstructions                  0                       # Number of SIMD instructions successfully decoded (Count)
system.cpu1.fetch2.loadInstructions                 0                       # Number of memory load instructions successfully decoded (Count)
system.cpu1.fetch2.storeInstructions                0                       # Number of memory store instructions successfully decoded (Count)
system.cpu1.fetch2.amoInstructions                  0                       # Number of memory atomic instructions successfully decoded (Count)
system.cpu1.icache.blockedCycles::no_mshrs            0                       # number of cycles access was blocked (Cycle)
system.cpu1.icache.blockedCycles::no_targets            0                       # number of cycles access was blocked (Cycle)
system.cpu1.icache.blockedCauses::no_mshrs            0                       # number of times access was blocked (Count)
system.cpu1.icache.blockedCauses::no_targets            0                       # number of times access was blocked (Count)
system.cpu1.icache.avgBlocked::no_mshrs           nan                       # average number of cycles each access was blocked ((Cycle/Count))
system.cpu1.icache.avgBlocked::no_targets          nan                       # average number of cycles each access was blocked ((Cycle/Count))
system.cpu1.icache.replacements                     0                       # number of replacements (Count)
system.cpu1.icache.power_state.pwrStateResidencyTicks::UNDEFINED  18146203250                       # Cumulative time (in ticks) in various power states (Tick)
system.cpu1.icache.tags.tagsInUse                   0                       # Average ticks per tags in use ((Tick/Count))
system.cpu1.icache.tags.totalRefs                   0                       # Total number of references to valid blocks. (Count)
system.cpu1.icache.tags.sampledRefs                 0                       # Sample count of references to valid blocks. (Count)
system.cpu1.icache.tags.avgRefs                   nan                       # Average number of references to valid blocks. ((Count/Count))
system.cpu1.icache.tags.warmupTick                  0                       # The tick when the warmup percentage was hit. (Tick)
system.cpu1.icache.tags.tagAccesses                 0                       # Number of tag accesses (Count)
system.cpu1.icache.tags.dataAccesses                0                       # Number of data accesses (Count)
system.cpu1.icache.tags.power_state.pwrStateResidencyTicks::UNDEFINED  18146203250                       # Cumulative time (in ticks) in various power states (Tick)
system.cpu1.itb_walker_cache.blockedCycles::no_mshrs            0                       # number of cycles access was blocked (Cycle)
system.cpu1.itb_walker_cache.blockedCycles::no_targets            0                       # number of cycles access was blocked (Cycle)
system.cpu1.itb_walker_cache.blockedCauses::no_mshrs            0                       # number of times access was blocked (Count)
system.cpu1.itb_walker_cache.blockedCauses::no_targets            0                       # number of times access was blocked (Count)
system.cpu1.itb_walker_cache.avgBlocked::no_mshrs          nan                       # average number of cycles each access was blocked ((Cycle/Count))
system.cpu1.itb_walker_cache.avgBlocked::no_targets          nan                       # average number of cycles each access was blocked ((Cycle/Count))
system.cpu1.itb_walker_cache.replacements            0                       # number of replacements (Count)
system.cpu1.itb_walker_cache.power_state.pwrStateResidencyTicks::UNDEFINED  18146203250                       # Cumulative time (in ticks) in various power states (Tick)
system.cpu1.itb_walker_cache.tags.tagsInUse            0                       # Average ticks per tags in use ((Tick/Count))
system.cpu1.itb_walker_cache.tags.totalRefs            0                       # Total number of references to valid blocks. (Count)
system.cpu1.itb_walker_cache.tags.sampledRefs            0                       # Sample count of references to valid blocks. (Count)
system.cpu1.itb_walker_cache.tags.avgRefs          nan                       # Average number of references to valid blocks. ((Count/Count))
system.cpu1.itb_walker_cache.tags.warmupTick            0                       # The tick when the warmup percentage was hit. (Tick)
system.cpu1.itb_walker_cache.tags.tagAccesses            0                       # Number of tag accesses (Count)
system.cpu1.itb_walker_cache.tags.dataAccesses            0                       # Number of data accesses (Count)
system.cpu1.itb_walker_cache.tags.power_state.pwrStateResidencyTicks::UNDEFINED  18146203250                       # Cumulative time (in ticks) in various power states (Tick)
system.cpu1.mmu.dtb.readHits                        0                       # read hits (Count)
system.cpu1.mmu.dtb.readMisses                      0                       # read misses (Count)
system.cpu1.mmu.dtb.readAccesses                    0                       # read accesses (Count)
system.cpu1.mmu.dtb.writeHits                       0                       # write hits (Count)
system.cpu1.mmu.dtb.writeMisses                     0                       # write misses (Count)
system.cpu1.mmu.dtb.writeAccesses                   0                       # write accesses (Count)
system.cpu1.mmu.dtb.hits                            0                       # Total TLB (read and write) hits (Count)
system.cpu1.mmu.dtb.misses                          0                       # Total TLB (read and write) misses (Count)
system.cpu1.mmu.dtb.accesses                        0                       # Total TLB (read and write) accesses (Count)
system.cpu1.mmu.dtb.walker.power_state.pwrStateResidencyTicks::UNDEFINED  18146203250                       # Cumulative time (in ticks) in various power states (Tick)
system.cpu1.mmu.itb.readHits                        0                       # read hits (Count)
system.cpu1.mmu.itb.readMisses                      0                       # read misses (Count)
system.cpu1.mmu.itb.readAccesses                    0                       # read accesses (Count)
system.cpu1.mmu.itb.writeHits                       0                       # write hits (Count)
system.cpu1.mmu.itb.writeMisses                     0                       # write misses (Count)
system.cpu1.mmu.itb.writeAccesses                   0                       # write accesses (Count)
system.cpu1.mmu.itb.hits                            0                       # Total TLB (read and write) hits (Count)
system.cpu1.mmu.itb.misses                          0                       # Total TLB (read and write) misses (Count)
system.cpu1.mmu.itb.accesses                        0                       # Total TLB (read and write) accesses (Count)
system.cpu1.mmu.itb.walker.power_state.pwrStateResidencyTicks::UNDEFINED  18146203250                       # Cumulative time (in ticks) in various power states (Tick)
system.cpu1.power_state.pwrStateResidencyTicks::ON  18146203250                       # Cumulative time (in ticks) in various power states (Tick)
system.cpu1.thread_0.numInsts                       0                       # Number of Instructions committed (Count)
system.cpu1.thread_0.numOps                         0                       # Number of Ops committed (Count)
system.cpu1.thread_0.numMemRefs                     0                       # Number of Memory References (Count)
system.cpu2.numCycles                               2                       # Number of cpu cycles simulated (Cycle)
system.cpu2.numWorkItemsStarted                     0                       # Number of work items this cpu started (Count)
system.cpu2.numWorkItemsCompleted                   0                       # Number of work items this cpu completed (Count)
system.cpu2.numInsts                                0                       # Number of instructions committed (Count)
system.cpu2.numOps                                  0                       # Number of ops (including micro ops) committed (Count)
system.cpu2.numDiscardedOps                         0                       # Number of ops (including micro ops) which were discarded before commit (Count)
system.cpu2.numFetchSuspends                        0                       # Number of times Execute suspended instruction fetching (Count)
system.cpu2.cpi                                   inf                       # CPI: cycles per instruction ((Cycle/Count))
system.cpu2.ipc                              0.000000                       # IPC: instructions per cycle ((Count/Cycle))
system.cpu2.committedInstType_0::No_OpClass            0                       # Class of committed instruction (Count)
system.cpu2.committedInstType_0::IntAlu             0                       # Class of committed instruction (Count)
system.cpu2.committedInstType_0::IntMult            0                       # Class of committed instruction (Count)
system.cpu2.committedInstType_0::IntDiv             0                       # Class of committed instruction (Count)
system.cpu2.committedInstType_0::FloatAdd            0                       # Class of committed instruction (Count)
system.cpu2.committedInstType_0::FloatCmp            0                       # Class of committed instruction (Count)
system.cpu2.committedInstType_0::FloatCvt            0                       # Class of committed instruction (Count)
system.cpu2.committedInstType_0::FloatMult            0                       # Class of committed instruction (Count)
system.cpu2.committedInstType_0::FloatMultAcc            0                       # Class of committed instruction (Count)
system.cpu2.committedInstType_0::FloatDiv            0                       # Class of committed instruction (Count)
system.cpu2.committedInstType_0::FloatMisc            0                       # Class of committed instruction (Count)
system.cpu2.committedInstType_0::FloatSqrt            0                       # Class of committed instruction (Count)
system.cpu2.committedInstType_0::SimdAdd            0                       # Class of committed instruction (Count)
system.cpu2.committedInstType_0::SimdAddAcc            0                       # Class of committed instruction (Count)
system.cpu2.committedInstType_0::SimdAlu            0                       # Class of committed instruction (Count)
system.cpu2.committedInstType_0::SimdCmp            0                       # Class of committed instruction (Count)
system.cpu2.committedInstType_0::SimdCvt            0                       # Class of committed instruction (Count)
system.cpu2.committedInstType_0::SimdMisc            0                       # Class of committed instruction (Count)
system.cpu2.committedInstType_0::SimdMult            0                       # Class of committed instruction (Count)
system.cpu2.committedInstType_0::SimdMultAcc            0                       # Class of committed instruction (Count)
system.cpu2.committedInstType_0::SimdShift            0                       # Class of committed instruction (Count)
system.cpu2.committedInstType_0::SimdShiftAcc            0                       # Class of committed instruction (Count)
system.cpu2.committedInstType_0::SimdDiv            0                       # Class of committed instruction (Count)
system.cpu2.committedInstType_0::SimdSqrt            0                       # Class of committed instruction (Count)
system.cpu2.committedInstType_0::SimdFloatAdd            0                       # Class of committed instruction (Count)
system.cpu2.committedInstType_0::SimdFloatAlu            0                       # Class of committed instruction (Count)
system.cpu2.committedInstType_0::SimdFloatCmp            0                       # Class of committed instruction (Count)
system.cpu2.committedInstType_0::SimdFloatCvt            0                       # Class of committed instruction (Count)
system.cpu2.committedInstType_0::SimdFloatDiv            0                       # Class of committed instruction (Count)
system.cpu2.committedInstType_0::SimdFloatMisc            0                       # Class of committed instruction (Count)
system.cpu2.committedInstType_0::SimdFloatMult            0                       # Class of committed instruction (Count)
system.cpu2.committedInstType_0::SimdFloatMultAcc            0                       # Class of committed instruction (Count)
system.cpu2.committedInstType_0::SimdFloatSqrt            0                       # Class of committed instruction (Count)
system.cpu2.committedInstType_0::SimdReduceAdd            0                       # Class of committed instruction (Count)
system.cpu2.committedInstType_0::SimdReduceAlu            0                       # Class of committed instruction (Count)
system.cpu2.committedInstType_0::SimdReduceCmp            0                       # Class of committed instruction (Count)
system.cpu2.committedInstType_0::SimdFloatReduceAdd            0                       # Class of committed instruction (Count)
system.cpu2.committedInstType_0::SimdFloatReduceCmp            0                       # Class of committed instruction (Count)
system.cpu2.committedInstType_0::SimdAes            0                       # Class of committed instruction (Count)
system.cpu2.committedInstType_0::SimdAesMix            0                       # Class of committed instruction (Count)
system.cpu2.committedInstType_0::SimdSha1Hash            0                       # Class of committed instruction (Count)
system.cpu2.committedInstType_0::SimdSha1Hash2            0                       # Class of committed instruction (Count)
system.cpu2.committedInstType_0::SimdSha256Hash            0                       # Class of committed instruction (Count)
system.cpu2.committedInstType_0::SimdSha256Hash2            0                       # Class of committed instruction (Count)
system.cpu2.committedInstType_0::SimdShaSigma2            0                       # Class of committed instruction (Count)
system.cpu2.committedInstType_0::SimdShaSigma3            0                       # Class of committed instruction (Count)
system.cpu2.committedInstType_0::SimdPredAlu            0                       # Class of committed instruction (Count)
system.cpu2.committedInstType_0::MemRead            0                       # Class of committed instruction (Count)
system.cpu2.committedInstType_0::MemWrite            0                       # Class of committed instruction (Count)
system.cpu2.committedInstType_0::FloatMemRead            0                       # Class of committed instruction (Count)
system.cpu2.committedInstType_0::FloatMemWrite            0                       # Class of committed instruction (Count)
system.cpu2.committedInstType_0::IprAccess            0                       # Class of committed instruction (Count)
system.cpu2.committedInstType_0::InstPrefetch            0                       # Class of committed instruction (Count)
system.cpu2.committedInstType_0::total              0                       # Class of committed instruction (Count)
system.cpu2.branchPred.lookups                      0                       # Number of BP lookups (Count)
system.cpu2.branchPred.condPredicted                0                       # Number of conditional branches predicted (Count)
system.cpu2.branchPred.condIncorrect                0                       # Number of conditional branches incorrect (Count)
system.cpu2.branchPred.BTBLookups                   0                       # Number of BTB lookups (Count)
system.cpu2.branchPred.BTBHits                      0                       # Number of BTB hits (Count)
system.cpu2.branchPred.BTBHitRatio                nan                       # BTB Hit Ratio (Ratio)
system.cpu2.branchPred.RASUsed                      0                       # Number of times the RAS was used to get a target. (Count)
system.cpu2.branchPred.RASIncorrect                 0                       # Number of incorrect RAS predictions. (Count)
system.cpu2.branchPred.indirectLookups              0                       # Number of indirect predictor lookups. (Count)
[...]
system.monitor.outstandingReadsHist::4              0      0.00%    100.00% # Outstanding read transactions (Count)
system.monitor.outstandingReadsHist::5              0      0.00%    100.00% # Outstanding read transactions (Count)
system.monitor.outstandingReadsHist::6              0      0.00%    100.00% # Outstanding read transactions (Count)
system.monitor.outstandingReadsHist::7              0      0.00%    100.00% # Outstanding read transactions (Count)
system.monitor.outstandingReadsHist::8              0      0.00%    100.00% # Outstanding read transactions (Count)
system.monitor.outstandingReadsHist::9              0      0.00%    100.00% # Outstanding read transactions (Count)
system.monitor.outstandingReadsHist::10             0      0.00%    100.00% # Outstanding read transactions (Count)
system.monitor.outstandingReadsHist::11             0      0.00%    100.00% # Outstanding read transactions (Count)
system.monitor.outstandingReadsHist::12             0      0.00%    100.00% # Outstanding read transactions (Count)
system.monitor.outstandingReadsHist::13             0      0.00%    100.00% # Outstanding read transactions (Count)
system.monitor.outstandingReadsHist::14             0      0.00%    100.00% # Outstanding read transactions (Count)
system.monitor.outstandingReadsHist::15             0      0.00%    100.00% # Outstanding read transactions (Count)
system.monitor.outstandingReadsHist::16             0      0.00%    100.00% # Outstanding read transactions (Count)
system.monitor.outstandingReadsHist::17             0      0.00%    100.00% # Outstanding read transactions (Count)
system.monitor.outstandingReadsHist::18             0      0.00%    100.00% # Outstanding read transactions (Count)
system.monitor.outstandingReadsHist::19             0      0.00%    100.00% # Outstanding read transactions (Count)
system.monitor.outstandingReadsHist::total           18                       # Outstanding read transactions (Count)
system.monitor.outstandingWritesHist::samples           18                       # Outstanding write transactions (Count)
system.monitor.outstandingWritesHist::mean            0                       # Outstanding write transactions (Count)
system.monitor.outstandingWritesHist::gmean            0                       # Outstanding write transactions (Count)
system.monitor.outstandingWritesHist::stdev            0                       # Outstanding write transactions (Count)
system.monitor.outstandingWritesHist::0            18    100.00%    100.00% # Outstanding write transactions (Count)
system.monitor.outstandingWritesHist::1             0      0.00%    100.00% # Outstanding write transactions (Count)
system.monitor.outstandingWritesHist::2             0      0.00%    100.00% # Outstanding write transactions (Count)
system.monitor.outstandingWritesHist::3             0      0.00%    100.00% # Outstanding write transactions (Count)
system.monitor.outstandingWritesHist::4             0      0.00%    100.00% # Outstanding write transactions (Count)
system.monitor.outstandingWritesHist::5             0      0.00%    100.00% # Outstanding write transactions (Count)
system.monitor.outstandingWritesHist::6             0      0.00%    100.00% # Outstanding write transactions (Count)
system.monitor.outstandingWritesHist::7             0      0.00%    100.00% # Outstanding write transactions (Count)
system.monitor.outstandingWritesHist::8             0      0.00%    100.00% # Outstanding write transactions (Count)
system.monitor.outstandingWritesHist::9             0      0.00%    100.00% # Outstanding write transactions (Count)
system.monitor.outstandingWritesHist::10            0      0.00%    100.00% # Outstanding write transactions (Count)
system.monitor.outstandingWritesHist::11            0      0.00%    100.00% # Outstanding write transactions (Count)
system.monitor.outstandingWritesHist::12            0      0.00%    100.00% # Outstanding write transactions (Count)
system.monitor.outstandingWritesHist::13            0      0.00%    100.00% # Outstanding write transactions (Count)
system.monitor.outstandingWritesHist::14            0      0.00%    100.00% # Outstanding write transactions (Count)
system.monitor.outstandingWritesHist::15            0      0.00%    100.00% # Outstanding write transactions (Count)
system.monitor.outstandingWritesHist::16            0      0.00%    100.00% # Outstanding write transactions (Count)
system.monitor.outstandingWritesHist::17            0      0.00%    100.00% # Outstanding write transactions (Count)
system.monitor.outstandingWritesHist::18            0      0.00%    100.00% # Outstanding write transactions (Count)
system.monitor.outstandingWritesHist::19            0      0.00%    100.00% # Outstanding write transactions (Count)
system.monitor.outstandingWritesHist::total           18                       # Outstanding write transactions (Count)
system.monitor.readTransHist::samples              18                       # Histogram of read transactions per sample period (Count)
system.monitor.readTransHist::mean        2843.277778                       # Histogram of read transactions per sample period (Count)
system.monitor.readTransHist::gmean                 0                       # Histogram of read transactions per sample period (Count)
system.monitor.readTransHist::stdev       2879.342915                       # Histogram of read transactions per sample period (Count)
system.monitor.readTransHist::0-511                 8     44.44%     44.44% # Histogram of read transactions per sample period (Count)
system.monitor.readTransHist::512-1023              0      0.00%     44.44% # Histogram of read transactions per sample period (Count)
system.monitor.readTransHist::1024-1535             0      0.00%     44.44% # Histogram of read transactions per sample period (Count)
system.monitor.readTransHist::1536-2047             0      0.00%     44.44% # Histogram of read transactions per sample period (Count)
system.monitor.readTransHist::2048-2559             0      0.00%     44.44% # Histogram of read transactions per sample period (Count)
system.monitor.readTransHist::2560-3071             0      0.00%     44.44% # Histogram of read transactions per sample period (Count)
system.monitor.readTransHist::3072-3583             2     11.11%     55.56% # Histogram of read transactions per sample period (Count)
system.monitor.readTransHist::3584-4095             2     11.11%     66.67% # Histogram of read transactions per sample period (Count)
system.monitor.readTransHist::4096-4607             1      5.56%     72.22% # Histogram of read transactions per sample period (Count)
system.monitor.readTransHist::4608-5119             0      0.00%     72.22% # Histogram of read transactions per sample period (Count)
system.monitor.readTransHist::5120-5631             2     11.11%     83.33% # Histogram of read transactions per sample period (Count)
system.monitor.readTransHist::5632-6143             0      0.00%     83.33% # Histogram of read transactions per sample period (Count)
system.monitor.readTransHist::6144-6655             1      5.56%     88.89% # Histogram of read transactions per sample period (Count)
system.monitor.readTransHist::6656-7167             1      5.56%     94.44% # Histogram of read transactions per sample period (Count)
system.monitor.readTransHist::7168-7679             0      0.00%     94.44% # Histogram of read transactions per sample period (Count)
system.monitor.readTransHist::7680-8191             0      0.00%     94.44% # Histogram of read transactions per sample period (Count)
system.monitor.readTransHist::8192-8703             1      5.56%    100.00% # Histogram of read transactions per sample period (Count)
system.monitor.readTransHist::8704-9215             0      0.00%    100.00% # Histogram of read transactions per sample period (Count)
system.monitor.readTransHist::9216-9727             0      0.00%    100.00% # Histogram of read transactions per sample period (Count)
system.monitor.readTransHist::9728-10239            0      0.00%    100.00% # Histogram of read transactions per sample period (Count)
system.monitor.readTransHist::total                18                       # Histogram of read transactions per sample period (Count)
system.monitor.writeTransHist::samples             18                       # Histogram of write transactions per sample period (Count)
system.monitor.writeTransHist::mean                 0                       # Histogram of write transactions per sample period (Count)
system.monitor.writeTransHist::gmean                0                       # Histogram of write transactions per sample period (Count)
system.monitor.writeTransHist::stdev                0                       # Histogram of write transactions per sample period (Count)
system.monitor.writeTransHist::0                   18    100.00%    100.00% # Histogram of write transactions per sample period (Count)
system.monitor.writeTransHist::1                    0      0.00%    100.00% # Histogram of write transactions per sample period (Count)
system.monitor.writeTransHist::2                    0      0.00%    100.00% # Histogram of write transactions per sample period (Count)
system.monitor.writeTransHist::3                    0      0.00%    100.00% # Histogram of write transactions per sample period (Count)
system.monitor.writeTransHist::4                    0      0.00%    100.00% # Histogram of write transactions per sample period (Count)
system.monitor.writeTransHist::5                    0      0.00%    100.00% # Histogram of write transactions per sample period (Count)
system.monitor.writeTransHist::6                    0      0.00%    100.00% # Histogram of write transactions per sample period (Count)
system.monitor.writeTransHist::7                    0      0.00%    100.00% # Histogram of write transactions per sample period (Count)
system.monitor.writeTransHist::8                    0      0.00%    100.00% # Histogram of write transactions per sample period (Count)
system.monitor.writeTransHist::9                    0      0.00%    100.00% # Histogram of write transactions per sample period (Count)
system.monitor.writeTransHist::10                   0      0.00%    100.00% # Histogram of write transactions per sample period (Count)
system.monitor.writeTransHist::11                   0      0.00%    100.00% # Histogram of write transactions per sample period (Count)
system.monitor.writeTransHist::12                   0      0.00%    100.00% # Histogram of write transactions per sample period (Count)
system.monitor.writeTransHist::13                   0      0.00%    100.00% # Histogram of write transactions per sample period (Count)
system.monitor.writeTransHist::14                   0      0.00%    100.00% # Histogram of write transactions per sample period (Count)
system.monitor.writeTransHist::15                   0      0.00%    100.00% # Histogram of write transactions per sample period (Count)
system.monitor.writeTransHist::16                   0      0.00%    100.00% # Histogram of write transactions per sample period (Count)
system.monitor.writeTransHist::17                   0      0.00%    100.00% # Histogram of write transactions per sample period (Count)
system.monitor.writeTransHist::18                   0      0.00%    100.00% # Histogram of write transactions per sample period (Count)
system.monitor.writeTransHist::19                   0      0.00%    100.00% # Histogram of write transactions per sample period (Count)
system.monitor.writeTransHist::total               18                       # Histogram of write transactions per sample period (Count)
system.tol2bus.transDist::ReadResp             141824                       # Transaction distribution (Count)
system.tol2bus.transDist::WritebackDirty       366354                       # Transaction distribution (Count)
system.tol2bus.transDist::WritebackClean         1942                       # Transaction distribution (Count)
system.tol2bus.transDist::CleanEvict             3793                       # Transaction distribution (Count)
system.tol2bus.transDist::ReadExReq            230521                       # Transaction distribution (Count)
system.tol2bus.transDist::ReadExResp           230521                       # Transaction distribution (Count)
system.tol2bus.transDist::ReadCleanReq           2071                       # Transaction distribution (Count)
system.tol2bus.transDist::ReadSharedReq        139754                       # Transaction distribution (Count)
system.tol2bus.pktCount_system.cpu0.icache.mem_side_port::system.l2.cpu_side_port         6083                       # Packet count per connected requestor and responder (Count)
system.tol2bus.pktCount_system.cpu0.dcache.mem_side_port::system.l2.cpu_side_port      1110697                       # Packet count per connected requestor and responder (Count)
system.tol2bus.pktCount::total                1116780                       # Packet count per connected requestor and responder (Count)
system.tol2bus.pktSize_system.cpu0.icache.mem_side_port::system.l2.cpu_side_port       256768                       # Cumulative packet size per connected requestor and responder (Byte)
system.tol2bus.pktSize_system.cpu0.dcache.mem_side_port::system.l2.cpu_side_port     47144256                       # Cumulative packet size per connected requestor and responder (Byte)
system.tol2bus.pktSize::total                47401024                       # Cumulative packet size per connected requestor and responder (Byte)
system.tol2bus.snoops                               0                       # Total snoops (Count)
system.tol2bus.snoopTraffic                         0                       # Total snoop traffic (Byte)
system.tol2bus.snoopFanout::samples            372346                       # Request fanout histogram (Count)
system.tol2bus.snoopFanout::mean             0.000005                       # Request fanout histogram (Count)
system.tol2bus.snoopFanout::stdev            0.002318                       # Request fanout histogram (Count)
system.tol2bus.snoopFanout::underflows              0      0.00%      0.00% # Request fanout histogram (Count)
system.tol2bus.snoopFanout::0                  372344    100.00%    100.00% # Request fanout histogram (Count)
system.tol2bus.snoopFanout::1                       2      0.00%    100.00% # Request fanout histogram (Count)
system.tol2bus.snoopFanout::2                       0      0.00%    100.00% # Request fanout histogram (Count)
system.tol2bus.snoopFanout::3                       0      0.00%    100.00% # Request fanout histogram (Count)
system.tol2bus.snoopFanout::4                       0      0.00%    100.00% # Request fanout histogram (Count)
system.tol2bus.snoopFanout::5                       0      0.00%    100.00% # Request fanout histogram (Count)
system.tol2bus.snoopFanout::6                       0      0.00%    100.00% # Request fanout histogram (Count)
system.tol2bus.snoopFanout::7                       0      0.00%    100.00% # Request fanout histogram (Count)
system.tol2bus.snoopFanout::8                       0      0.00%    100.00% # Request fanout histogram (Count)
system.tol2bus.snoopFanout::9                       0      0.00%    100.00% # Request fanout histogram (Count)
system.tol2bus.snoopFanout::10                      0      0.00%    100.00% # Request fanout histogram (Count)
system.tol2bus.snoopFanout::11                      0      0.00%    100.00% # Request fanout histogram (Count)
system.tol2bus.snoopFanout::12                      0      0.00%    100.00% # Request fanout histogram (Count)
system.tol2bus.snoopFanout::13                      0      0.00%    100.00% # Request fanout histogram (Count)
system.tol2bus.snoopFanout::14                      0      0.00%    100.00% # Request fanout histogram (Count)
system.tol2bus.snoopFanout::15                      0      0.00%    100.00% # Request fanout histogram (Count)
system.tol2bus.snoopFanout::16                      0      0.00%    100.00% # Request fanout histogram (Count)
system.tol2bus.snoopFanout::overflows               0      0.00%    100.00% # Request fanout histogram (Count)
system.tol2bus.snoopFanout::min_value               0                       # Request fanout histogram (Count)
system.tol2bus.snoopFanout::max_value               1                       # Request fanout histogram (Count)
system.tol2bus.snoopFanout::total              372346                       # Request fanout histogram (Count)
system.tol2bus.power_state.pwrStateResidencyTicks::UNDEFINED  18146203250                       # Cumulative time (in ticks) in various power states (Tick)
system.tol2bus.reqLayer0.occupancy          370256750                       # Layer occupancy (ticks) (Tick)
system.tol2bus.reqLayer0.utilization              0.0                       # Layer utilization (Ratio)
system.tol2bus.respLayer0.occupancy           1553994                       # Layer occupancy (ticks) (Tick)
system.tol2bus.respLayer0.utilization             0.0                       # Layer utilization (Ratio)
system.tol2bus.respLayer1.occupancy         277706250                       # Layer occupancy (ticks) (Tick)
system.tol2bus.respLayer1.utilization             0.0                       # Layer utilization (Ratio)
system.tol2bus.snoop_filter.totRequests        744435                       # Total number of requests made to the snoop filter. (Count)
system.tol2bus.snoop_filter.hitSingleRequests       372090                       # Number of requests hitting in the snoop filter with a single holder of the requested data. (Count)
system.tol2bus.snoop_filter.hitMultiRequests            1                       # Number of requests hitting in the snoop filter with multiple (>1) holders of the requested data. (Count)
system.tol2bus.snoop_filter.totSnoops               0                       # Total number of snoops made to the snoop filter. (Count)
system.tol2bus.snoop_filter.hitSingleSnoops            0                       # Number of snoops hitting in the snoop filter with a single holder of the requested data. (Count)
system.tol2bus.snoop_filter.hitMultiSnoops            0                       # Number of snoops hitting in the snoop filter with multiple (>1) holders of the requested data. (Count)
system.voltage_domain.voltage                       1                       # Voltage in Volts (Volt)
system.workload.inst.arm                            0                       # number of arm instructions executed (Count)
system.workload.inst.quiesce                        0                       # number of quiesce instructions executed (Count)
system.cpu0.idleCycles                       19451678                       # Total number of cycles that the object has spent stopped (Unspecified)
system.cpu0.tickCycles                       53133135                       # Number of cycles that the object actually ticked (Unspecified)
system.cpu1.idleCycles                              0                       # Total number of cycles that the object has spent stopped (Unspecified)
system.cpu1.tickCycles                              2                       # Number of cycles that the object actually ticked (Unspecified)
system.cpu2.idleCycles                              0                       # Total number of cycles that the object has spent stopped (Unspecified)
system.cpu2.tickCycles                              2                       # Number of cycles that the object actually ticked (Unspecified)
system.cpu3.idleCycles                              0                       # Total number of cycles that the object has spent stopped (Unspecified)
system.cpu3.tickCycles                              2                       # Number of cycles that the object actually ticked (Unspecified)

---------- End Simulation Statistics   ----------
